/BATCH
/CLEAR,NOSTART
/CONFIG,RESUPREC,0
/TITLE,Open cylinder verification P10N4
/PREP7
CSYS,0
ET,1,PLANE183
KEYOPT,1,1,0
KEYOPT,1,3,1
KEYOPT,1,6,0
MP,EX,1,200000
MP,PRXY,1,0.3
TYPE,1
MAT,1
ESYS,0
N,1,750,0,0
N,2,757.5,0,0
N,3,765,0,0
N,4,772.5,0,0
N,5,780,0,0
N,6,787.5,0,0
N,7,795,0,0
N,8,802.5,0,0
N,9,810,0,0
N,10,750,5,0
N,11,765,5,0
N,12,780,5,0
N,13,795,5,0
N,14,810,5,0
N,15,750,10,0
N,16,757.5,10,0
N,17,765,10,0
N,18,772.5,10,0
N,19,780,10,0
N,20,787.5,10,0
! ... 325 like lines cut
EN,1,1,3,17,15,2,11,16,10
EN,2,3,5,19,17,4,12,18,11
EN,3,5,7,21,19,6,13,20,12
EN,4,7,9,23,21,8,14,22,13
EN,5,15,17,31,29,16,25,30,24
EN,6,17,19,33,31,18,26,32,25
EN,7,19,21,35,33,20,27,34,26
EN,8,21,23,37,35,22,28,36,27
EN,9,29,31,45,43,30,39,44,38
EN,10,31,33,47,45,32,40,46,39
EN,11,33,35,49,47,34,41,48,40
EN,12,35,37,51,49,36,42,50,41
EN,13,43,45,59,57,44,53,58,52
EN,14,45,47,61,59,46,54,60,53
EN,15,47,49,63,61,48,55,62,54
EN,16,49,51,65,63,50,56,64,55
EN,17,57,59,73,71,58,67,72,66
EN,18,59,61,75,73,60,68,74,67
EN,19,61,63,77,75,62,69,76,68
EN,20,63,65,79,77,64,70,78,69
! ... 76 like lines cut
ALLSEL,ALL
CDWRITE,DB,model,cdb
/COM,OCV_MESH_BEGIN
NLIST,ALL
ELIST,ALL
ETLIST,ALL
MPLIST,ALL
/COM,OCV_MESH_END
FINISH
/SOLU
ANTYPE,STATIC
NLGEOM,OFF
AUTOTS,OFF
NSUBST,1,1,1
TIME,1
ERESX,YES
ALLSEL,ALL
D,1,UY,0
D,2,UY,0
D,3,UY,0
D,4,UY,0
D,5,UY,0
D,6,UY,0
D,7,UY,0
D,8,UY,0
D,9,UY,0
SFE,1,4,PRES,1,10,10
SFE,5,4,PRES,1,10,10
SFE,9,4,PRES,1,10,10
SFE,13,4,PRES,1,10,10
SFE,17,4,PRES,1,10,10
SFE,21,4,PRES,1,10,10
SFE,25,4,PRES,1,10,10
SFE,29,4,PRES,1,10,10
SFE,33,4,PRES,1,10,10
SFE,37,4,PRES,1,10,10
SFE,41,4,PRES,1,10,10
SFE,45,4,PRES,1,10,10
SFE,49,4,PRES,1,10,10
SFE,53,4,PRES,1,10,10
SFE,57,4,PRES,1,10,10
SFE,61,4,PRES,1,10,10
SFE,65,4,PRES,1,10,10
SFE,69,4,PRES,1,10,10
SFE,73,4,PRES,1,10,10
SFE,77,4,PRES,1,10,10
! ... 4 like lines cut
/COM,OCV_OUTRES_BEGIN
OUTRES,ERASE
OUTRES,ALL,ALL
OUTRES,NAR,NONE
OUTRES,STAT
/COM,OCV_OUTRES_END
/COM,OCV_NERR_BEGIN
/NERR,STAT
/COM,OCV_NERR_END
ALLSEL,ALL
/COM,OCV_LOAD_AUDIT_BEGIN
SFELIST,ALL,ALL
FLIST,ALL
DLIST,ALL
FINISH
/CONFIG,STAT
/SOLU
SOLVE
FINISH
/CONFIG,STAT
/POST1
SET,1,1
/COM,OCV_SOLVED_STATE_BEGIN
/GRAPHICS,FULL
RSYS,0
ALLSEL,ALL
*GET,OCVPREN,NODE,0,COUNT
*GET,OCVPREE,ELEM,0,COUNT
*GET,OCVNSET,ACTIVE,0,SET,NSET
*GET,OCVLSTP,ACTIVE,0,SET,LSTP
*GET,OCVSBST,ACTIVE,0,SET,SBST
/COM,OCV_FORMAT_BEGIN
/FORMAT,8,E,24,16,100,240
/FORMAT,STAT
/COM,OCV_FORMAT_END
*CFOPEN,station_values,txt
*GET,OCVX,NODE,85,LOC,X
*GET,OCVY,NODE,85,LOC,Y
OCVQ=9.876543210123456E90
*GET,OCVQ,NODE,85,S,X,ESOL
*VWRITE,'P10N4',85,OCVX,OCVY,'SX',OCVQ
(A8,F8.0,2E24.16,A8,E24.16)
OCVQ=9.876543210123456E90
*GET,OCVQ,NODE,85,S,Y,ESOL
*VWRITE,'P10N4',85,OCVX,OCVY,'SY',OCVQ
(A8,F8.0,2E24.16,A8,E24.16)
OCVQ=9.876543210123456E90
*GET,OCVQ,NODE,85,S,Z,ESOL
*VWRITE,'P10N4',85,OCVX,OCVY,'SZ',OCVQ
(A8,F8.0,2E24.16,A8,E24.16)
OCVQ=9.876543210123456E90
*GET,OCVQ,NODE,85,S,XY,ESOL
*VWRITE,'P10N4',85,OCVX,OCVY,'SXY',OCVQ
(A8,F8.0,2E24.16,A8,E24.16)
OCVQ=9.876543210123456E90
*GET,OCVQ,NODE,85,U,X
*VWRITE,'P10N4',85,OCVX,OCVY,'UX',OCVQ
(A8,F8.0,2E24.16,A8,E24.16)
OCVQ=9.876543210123456E90
*GET,OCVQ,NODE,85,U,Y
*VWRITE,'P10N4',85,OCVX,OCVY,'UY',OCVQ
(A8,F8.0,2E24.16,A8,E24.16)
*GET,OCVX,NODE,89,LOC,X
*GET,OCVY,NODE,89,LOC,Y
OCVQ=9.876543210123456E90
*GET,OCVQ,NODE,89,S,X,ESOL
*VWRITE,'P10N4',89,OCVX,OCVY,'SX',OCVQ
(A8,F8.0,2E24.16,A8,E24.16)
OCVQ=9.876543210123456E90
*GET,OCVQ,NODE,89,S,Y,ESOL
*VWRITE,'P10N4',89,OCVX,OCVY,'SY',OCVQ
(A8,F8.0,2E24.16,A8,E24.16)
OCVQ=9.876543210123456E90
*GET,OCVQ,NODE,89,S,Z,ESOL
*VWRITE,'P10N4',89,OCVX,OCVY,'SZ',OCVQ
(A8,F8.0,2E24.16,A8,E24.16)
OCVQ=9.876543210123456E90
*GET,OCVQ,NODE,89,S,XY,ESOL
*VWRITE,'P10N4',89,OCVX,OCVY,'SXY',OCVQ
(A8,F8.0,2E24.16,A8,E24.16)
OCVQ=9.876543210123456E90
*GET,OCVQ,NODE,89,U,X
*VWRITE,'P10N4',89,OCVX,OCVY,'UX',OCVQ
(A8,F8.0,2E24.16,A8,E24.16)
OCVQ=9.876543210123456E90
*GET,OCVQ,NODE,89,U,Y
*VWRITE,'P10N4',89,OCVX,OCVY,'UY',OCVQ
(A8,F8.0,2E24.16,A8,E24.16)
*GET,OCVX,NODE,93,LOC,X
*GET,OCVY,NODE,93,LOC,Y
OCVQ=9.876543210123456E90
*GET,OCVQ,NODE,93,S,X,ESOL
*VWRITE,'P10N4',93,OCVX,OCVY,'SX',OCVQ
(A8,F8.0,2E24.16,A8,E24.16)
OCVQ=9.876543210123456E90
*GET,OCVQ,NODE,93,S,Y,ESOL
*VWRITE,'P10N4',93,OCVX,OCVY,'SY',OCVQ
(A8,F8.0,2E24.16,A8,E24.16)
OCVQ=9.876543210123456E90
*GET,OCVQ,NODE,93,S,Z,ESOL
*VWRITE,'P10N4',93,OCVX,OCVY,'SZ',OCVQ
(A8,F8.0,2E24.16,A8,E24.16)
OCVQ=9.876543210123456E90
*GET,OCVQ,NODE,93,S,XY,ESOL
*VWRITE,'P10N4',93,OCVX,OCVY,'SXY',OCVQ
(A8,F8.0,2E24.16,A8,E24.16)
OCVQ=9.876543210123456E90
*GET,OCVQ,NODE,93,U,X
*VWRITE,'P10N4',93,OCVX,OCVY,'UX',OCVQ
(A8,F8.0,2E24.16,A8,E24.16)
OCVQ=9.876543210123456E90
*GET,OCVQ,NODE,93,U,Y
*VWRITE,'P10N4',93,OCVX,OCVY,'UY',OCVQ
(A8,F8.0,2E24.16,A8,E24.16)
*GET,OCVX,NODE,169,LOC,X
*GET,OCVY,NODE,169,LOC,Y
OCVQ=9.876543210123456E90
*GET,OCVQ,NODE,169,S,X,ESOL
*VWRITE,'P10N4',169,OCVX,OCVY,'SX',OCVQ
(A8,F8.0,2E24.16,A8,E24.16)
OCVQ=9.876543210123456E90
*GET,OCVQ,NODE,169,S,Y,ESOL
*VWRITE,'P10N4',169,OCVX,OCVY,'SY',OCVQ
(A8,F8.0,2E24.16,A8,E24.16)
OCVQ=9.876543210123456E90
*GET,OCVQ,NODE,169,S,Z,ESOL
*VWRITE,'P10N4',169,OCVX,OCVY,'SZ',OCVQ
(A8,F8.0,2E24.16,A8,E24.16)
OCVQ=9.876543210123456E90
*GET,OCVQ,NODE,169,S,XY,ESOL
*VWRITE,'P10N4',169,OCVX,OCVY,'SXY',OCVQ
(A8,F8.0,2E24.16,A8,E24.16)
OCVQ=9.876543210123456E90
*GET,OCVQ,NODE,169,U,X
*VWRITE,'P10N4',169,OCVX,OCVY,'UX',OCVQ
(A8,F8.0,2E24.16,A8,E24.16)
OCVQ=9.876543210123456E90
*GET,OCVQ,NODE,169,U,Y
*VWRITE,'P10N4',169,OCVX,OCVY,'UY',OCVQ
(A8,F8.0,2E24.16,A8,E24.16)
*GET,OCVX,NODE,173,LOC,X
*GET,OCVY,NODE,173,LOC,Y
OCVQ=9.876543210123456E90
*GET,OCVQ,NODE,173,S,X,ESOL
*VWRITE,'P10N4',173,OCVX,OCVY,'SX',OCVQ
(A8,F8.0,2E24.16,A8,E24.16)
OCVQ=9.876543210123456E90
*GET,OCVQ,NODE,173,S,Y,ESOL
*VWRITE,'P10N4',173,OCVX,OCVY,'SY',OCVQ
(A8,F8.0,2E24.16,A8,E24.16)
OCVQ=9.876543210123456E90
*GET,OCVQ,NODE,173,S,Z,ESOL
*VWRITE,'P10N4',173,OCVX,OCVY,'SZ',OCVQ
(A8,F8.0,2E24.16,A8,E24.16)
OCVQ=9.876543210123456E90
*GET,OCVQ,NODE,173,S,XY,ESOL
*VWRITE,'P10N4',173,OCVX,OCVY,'SXY',OCVQ
(A8,F8.0,2E24.16,A8,E24.16)
OCVQ=9.876543210123456E90
*GET,OCVQ,NODE,173,U,X
*VWRITE,'P10N4',173,OCVX,OCVY,'UX',OCVQ
(A8,F8.0,2E24.16,A8,E24.16)
OCVQ=9.876543210123456E90
*GET,OCVQ,NODE,173,U,Y
*VWRITE,'P10N4',173,OCVX,OCVY,'UY',OCVQ
(A8,F8.0,2E24.16,A8,E24.16)
*GET,OCVX,NODE,177,LOC,X
*GET,OCVY,NODE,177,LOC,Y
OCVQ=9.876543210123456E90
*GET,OCVQ,NODE,177,S,X,ESOL
*VWRITE,'P10N4',177,OCVX,OCVY,'SX',OCVQ
(A8,F8.0,2E24.16,A8,E24.16)
OCVQ=9.876543210123456E90
*GET,OCVQ,NODE,177,S,Y,ESOL
*VWRITE,'P10N4',177,OCVX,OCVY,'SY',OCVQ
(A8,F8.0,2E24.16,A8,E24.16)
OCVQ=9.876543210123456E90
*GET,OCVQ,NODE,177,S,Z,ESOL
*VWRITE,'P10N4',177,OCVX,OCVY,'SZ',OCVQ
(A8,F8.0,2E24.16,A8,E24.16)
OCVQ=9.876543210123456E90
*GET,OCVQ,NODE,177,S,XY,ESOL
*VWRITE,'P10N4',177,OCVX,OCVY,'SXY',OCVQ
(A8,F8.0,2E24.16,A8,E24.16)
OCVQ=9.876543210123456E90
*GET,OCVQ,NODE,177,U,X
*VWRITE,'P10N4',177,OCVX,OCVY,'UX',OCVQ
(A8,F8.0,2E24.16,A8,E24.16)
OCVQ=9.876543210123456E90
*GET,OCVQ,NODE,177,U,Y
*VWRITE,'P10N4',177,OCVX,OCVY,'UY',OCVQ
(A8,F8.0,2E24.16,A8,E24.16)
*GET,OCVX,NODE,253,LOC,X
*GET,OCVY,NODE,253,LOC,Y
OCVQ=9.876543210123456E90
*GET,OCVQ,NODE,253,S,X,ESOL
*VWRITE,'P10N4',253,OCVX,OCVY,'SX',OCVQ
(A8,F8.0,2E24.16,A8,E24.16)
OCVQ=9.876543210123456E90
*GET,OCVQ,NODE,253,S,Y,ESOL
*VWRITE,'P10N4',253,OCVX,OCVY,'SY',OCVQ
(A8,F8.0,2E24.16,A8,E24.16)
OCVQ=9.876543210123456E90
*GET,OCVQ,NODE,253,S,Z,ESOL
*VWRITE,'P10N4',253,OCVX,OCVY,'SZ',OCVQ
(A8,F8.0,2E24.16,A8,E24.16)
OCVQ=9.876543210123456E90
*GET,OCVQ,NODE,253,S,XY,ESOL
*VWRITE,'P10N4',253,OCVX,OCVY,'SXY',OCVQ
(A8,F8.0,2E24.16,A8,E24.16)
OCVQ=9.876543210123456E90
*GET,OCVQ,NODE,253,U,X
*VWRITE,'P10N4',253,OCVX,OCVY,'UX',OCVQ
(A8,F8.0,2E24.16,A8,E24.16)
OCVQ=9.876543210123456E90
*GET,OCVQ,NODE,253,U,Y
*VWRITE,'P10N4',253,OCVX,OCVY,'UY',OCVQ
(A8,F8.0,2E24.16,A8,E24.16)
*GET,OCVX,NODE,257,LOC,X
*GET,OCVY,NODE,257,LOC,Y
OCVQ=9.876543210123456E90
*GET,OCVQ,NODE,257,S,X,ESOL
*VWRITE,'P10N4',257,OCVX,OCVY,'SX',OCVQ
(A8,F8.0,2E24.16,A8,E24.16)
OCVQ=9.876543210123456E90
*GET,OCVQ,NODE,257,S,Y,ESOL
*VWRITE,'P10N4',257,OCVX,OCVY,'SY',OCVQ
(A8,F8.0,2E24.16,A8,E24.16)
OCVQ=9.876543210123456E90
*GET,OCVQ,NODE,257,S,Z,ESOL
*VWRITE,'P10N4',257,OCVX,OCVY,'SZ',OCVQ
(A8,F8.0,2E24.16,A8,E24.16)
OCVQ=9.876543210123456E90
*GET,OCVQ,NODE,257,S,XY,ESOL
*VWRITE,'P10N4',257,OCVX,OCVY,'SXY',OCVQ
(A8,F8.0,2E24.16,A8,E24.16)
OCVQ=9.876543210123456E90
*GET,OCVQ,NODE,257,U,X
*VWRITE,'P10N4',257,OCVX,OCVY,'UX',OCVQ
(A8,F8.0,2E24.16,A8,E24.16)
OCVQ=9.876543210123456E90
*GET,OCVQ,NODE,257,U,Y
*VWRITE,'P10N4',257,OCVX,OCVY,'UY',OCVQ
(A8,F8.0,2E24.16,A8,E24.16)
*GET,OCVX,NODE,261,LOC,X
*GET,OCVY,NODE,261,LOC,Y
OCVQ=9.876543210123456E90
*GET,OCVQ,NODE,261,S,X,ESOL
*VWRITE,'P10N4',261,OCVX,OCVY,'SX',OCVQ
(A8,F8.0,2E24.16,A8,E24.16)
OCVQ=9.876543210123456E90
*GET,OCVQ,NODE,261,S,Y,ESOL
*VWRITE,'P10N4',261,OCVX,OCVY,'SY',OCVQ
(A8,F8.0,2E24.16,A8,E24.16)
OCVQ=9.876543210123456E90
*GET,OCVQ,NODE,261,S,Z,ESOL
*VWRITE,'P10N4',261,OCVX,OCVY,'SZ',OCVQ
(A8,F8.0,2E24.16,A8,E24.16)
OCVQ=9.876543210123456E90
*GET,OCVQ,NODE,261,S,XY,ESOL
*VWRITE,'P10N4',261,OCVX,OCVY,'SXY',OCVQ
(A8,F8.0,2E24.16,A8,E24.16)
OCVQ=9.876543210123456E90
*GET,OCVQ,NODE,261,U,X
*VWRITE,'P10N4',261,OCVX,OCVY,'UX',OCVQ
(A8,F8.0,2E24.16,A8,E24.16)
OCVQ=9.876543210123456E90
*GET,OCVQ,NODE,261,U,Y
*VWRITE,'P10N4',261,OCVX,OCVY,'UY',OCVQ
(A8,F8.0,2E24.16,A8,E24.16)
*CFCLOS
/COM,OCV_PRESOL_BEGIN
PRESOL,S,COMP
/COM,OCV_PRESOL_END
NSEL,NONE
NSEL,A,NODE,,85
NSEL,A,NODE,,89
NSEL,A,NODE,,93
NSEL,A,NODE,,169
NSEL,A,NODE,,173
NSEL,A,NODE,,177
NSEL,A,NODE,,253
NSEL,A,NODE,,257
NSEL,A,NODE,,261
*GET,OCVLISTN,NODE,0,COUNT
*GET,OCVLISTE,ELEM,0,COUNT
/COM,OCV_STRESS_BEGIN
PRNSOL,S,COMP,,,,,ESOL
/COM,OCV_STRESS_END
/COM,OCV_DISP_BEGIN
PRNSOL,U,COMP
/COM,OCV_DISP_END
NSEL,ALL
*GET,OCVPOSTN,NODE,0,COUNT
*GET,OCVPOSTE,ELEM,0,COUNT
NSEL,NONE
NSEL,A,NODE,,1
NSEL,A,NODE,,2
NSEL,A,NODE,,3
NSEL,A,NODE,,4
NSEL,A,NODE,,5
NSEL,A,NODE,,6
NSEL,A,NODE,,7
NSEL,A,NODE,,8
NSEL,A,NODE,,9
/COM,OCV_SUPPORT_BEGIN
PRRSOL,F
/COM,OCV_SUPPORT_END
*CFOPEN,support_reactions,txt
*GET,OCVX,NODE,1,LOC,X
*GET,OCVY,NODE,1,LOC,Y
OCVQ=9.876543210123456E90
*GET,OCVQ,NODE,1,RF,FY
*VWRITE,'P10N4',1,OCVX,OCVY,'RFY',OCVQ
(A8,F8.0,2E24.16,A8,E24.16)
*GET,OCVX,NODE,2,LOC,X
*GET,OCVY,NODE,2,LOC,Y
OCVQ=9.876543210123456E90
*GET,OCVQ,NODE,2,RF,FY
*VWRITE,'P10N4',2,OCVX,OCVY,'RFY',OCVQ
(A8,F8.0,2E24.16,A8,E24.16)
*GET,OCVX,NODE,3,LOC,X
*GET,OCVY,NODE,3,LOC,Y
OCVQ=9.876543210123456E90
*GET,OCVQ,NODE,3,RF,FY
*VWRITE,'P10N4',3,OCVX,OCVY,'RFY',OCVQ
(A8,F8.0,2E24.16,A8,E24.16)
*GET,OCVX,NODE,4,LOC,X
*GET,OCVY,NODE,4,LOC,Y
OCVQ=9.876543210123456E90
*GET,OCVQ,NODE,4,RF,FY
*VWRITE,'P10N4',4,OCVX,OCVY,'RFY',OCVQ
(A8,F8.0,2E24.16,A8,E24.16)
*GET,OCVX,NODE,5,LOC,X
*GET,OCVY,NODE,5,LOC,Y
OCVQ=9.876543210123456E90
*GET,OCVQ,NODE,5,RF,FY
*VWRITE,'P10N4',5,OCVX,OCVY,'RFY',OCVQ
(A8,F8.0,2E24.16,A8,E24.16)
*GET,OCVX,NODE,6,LOC,X
*GET,OCVY,NODE,6,LOC,Y
OCVQ=9.876543210123456E90
*GET,OCVQ,NODE,6,RF,FY
*VWRITE,'P10N4',6,OCVX,OCVY,'RFY',OCVQ
(A8,F8.0,2E24.16,A8,E24.16)
*GET,OCVX,NODE,7,LOC,X
*GET,OCVY,NODE,7,LOC,Y
OCVQ=9.876543210123456E90
*GET,OCVQ,NODE,7,RF,FY
*VWRITE,'P10N4',7,OCVX,OCVY,'RFY',OCVQ
(A8,F8.0,2E24.16,A8,E24.16)
*GET,OCVX,NODE,8,LOC,X
*GET,OCVY,NODE,8,LOC,Y
OCVQ=9.876543210123456E90
*GET,OCVQ,NODE,8,RF,FY
*VWRITE,'P10N4',8,OCVX,OCVY,'RFY',OCVQ
(A8,F8.0,2E24.16,A8,E24.16)
*GET,OCVX,NODE,9,LOC,X
*GET,OCVY,NODE,9,LOC,Y
OCVQ=9.876543210123456E90
*GET,OCVQ,NODE,9,RF,FY
*VWRITE,'P10N4',9,OCVX,OCVY,'RFY',OCVQ
(A8,F8.0,2E24.16,A8,E24.16)
*CFCLOS
NSEL,ALL
*CFOPEN,state_values,txt
*VWRITE,'P10N4',0,0,0,'NSET',OCVNSET
(A8,F8.0,2E24.16,A8,E24.16)
*VWRITE,'P10N4',0,0,0,'LSTP',OCVLSTP
(A8,F8.0,2E24.16,A8,E24.16)
*VWRITE,'P10N4',0,0,0,'SBST',OCVSBST
(A8,F8.0,2E24.16,A8,E24.16)
*VWRITE,'P10N4',0,0,0,'PRE_N',OCVPREN
(A8,F8.0,2E24.16,A8,E24.16)
*VWRITE,'P10N4',0,0,0,'PRE_E',OCVPREE
(A8,F8.0,2E24.16,A8,E24.16)
*VWRITE,'P10N4',0,0,0,'LIST_N',OCVLISTN
(A8,F8.0,2E24.16,A8,E24.16)
*VWRITE,'P10N4',0,0,0,'LIST_E',OCVLISTE
(A8,F8.0,2E24.16,A8,E24.16)
*VWRITE,'P10N4',0,0,0,'POST_N',OCVPOSTN
(A8,F8.0,2E24.16,A8,E24.16)
*VWRITE,'P10N4',0,0,0,'POST_E',OCVPOSTE
(A8,F8.0,2E24.16,A8,E24.16)
*CFCLOS
*CFOPEN,precision_witness,txt
OCVWIT=1.234567890123456
*VWRITE,'P10N4',0,0,0,'WITNESS',OCVWIT
(A8,F8.0,2E24.16,A8,E24.16)
*CFCLOS
FINISH
