/BATCH
/CLEAR,NOSTART
/CONFIG,RESUPREC,0
/TITLE,Open cylinder verification P10N16
/PREP7
CSYS,0
ET,1,PLANE183
KEYOPT,1,1,0
KEYOPT,1,3,1
KEYOPT,1,6,0
MP,EX,1,200000
MP,PRXY,1,0.3
TYPE,1
MAT,1
ESYS,0
N,1,750,0,0
N,2,751.875,0,0
N,3,753.75,0,0
N,4,755.625,0,0
N,5,757.5,0,0
N,6,759.375,0,0
N,7,761.25,0,0
N,8,763.125,0,0
N,9,765,0,0
N,10,766.875,0,0
N,11,768.75,0,0
N,12,770.625,0,0
N,13,772.5,0,0
N,14,774.375,0,0
N,15,776.25,0,0
N,16,778.125,0,0
N,17,780,0,0
N,18,781.875,0,0
N,19,783.75,0,0
N,20,785.625,0,0
! ... 4813 like lines cut
EN,1,1,3,53,51,2,35,52,34
EN,2,3,5,55,53,4,36,54,35
EN,3,5,7,57,55,6,37,56,36
EN,4,7,9,59,57,8,38,58,37
EN,5,9,11,61,59,10,39,60,38
EN,6,11,13,63,61,12,40,62,39
EN,7,13,15,65,63,14,41,64,40
EN,8,15,17,67,65,16,42,66,41
EN,9,17,19,69,67,18,43,68,42
EN,10,19,21,71,69,20,44,70,43
EN,11,21,23,73,71,22,45,72,44
EN,12,23,25,75,73,24,46,74,45
EN,13,25,27,77,75,26,47,76,46
EN,14,27,29,79,77,28,48,78,47
EN,15,29,31,81,79,30,49,80,48
EN,16,31,33,83,81,32,50,82,49
EN,17,51,53,103,101,52,85,102,84
EN,18,53,55,105,103,54,86,104,85
EN,19,55,57,107,105,56,87,106,86
EN,20,57,59,109,107,58,88,108,87
! ... 1516 like lines cut
ALLSEL,ALL
CDWRITE,DB,model,cdb
/COM,OCV_MESH_BEGIN
NLIST,ALL
ELIST,ALL
ETLIST,ALL
MPLIST,ALL
/COM,OCV_MESH_END
FINISH
/SOLU
ANTYPE,STATIC
NLGEOM,OFF
AUTOTS,OFF
NSUBST,1,1,1
TIME,1
ERESX,YES
ALLSEL,ALL
D,1,UY,0
D,2,UY,0
D,3,UY,0
D,4,UY,0
D,5,UY,0
D,6,UY,0
D,7,UY,0
D,8,UY,0
D,9,UY,0
D,10,UY,0
D,11,UY,0
D,12,UY,0
D,13,UY,0
D,14,UY,0
D,15,UY,0
D,16,UY,0
D,17,UY,0
D,18,UY,0
D,19,UY,0
D,20,UY,0
! ... 13 like lines cut
SFE,1,4,PRES,1,10,10
SFE,17,4,PRES,1,10,10
SFE,33,4,PRES,1,10,10
SFE,49,4,PRES,1,10,10
SFE,65,4,PRES,1,10,10
SFE,81,4,PRES,1,10,10
SFE,97,4,PRES,1,10,10
SFE,113,4,PRES,1,10,10
SFE,129,4,PRES,1,10,10
SFE,145,4,PRES,1,10,10
SFE,161,4,PRES,1,10,10
SFE,177,4,PRES,1,10,10
SFE,193,4,PRES,1,10,10
SFE,209,4,PRES,1,10,10
SFE,225,4,PRES,1,10,10
SFE,241,4,PRES,1,10,10
SFE,257,4,PRES,1,10,10
SFE,273,4,PRES,1,10,10
SFE,289,4,PRES,1,10,10
SFE,305,4,PRES,1,10,10
! ... 76 like lines cut
/COM,OCV_OUTRES_BEGIN
OUTRES,ERASE
OUTRES,ALL,ALL
OUTRES,NAR,NONE
OUTRES,STAT
/COM,OCV_OUTRES_END
/COM,OCV_NERR_BEGIN
/NERR,STAT
/COM,OCV_NERR_END
ALLSEL,ALL
/COM,OCV_LOAD_AUDIT_BEGIN
SFELIST,ALL,ALL
FLIST,ALL
DLIST,ALL
FINISH
/CONFIG,STAT
/SOLU
SOLVE
FINISH
/CONFIG,STAT
/POST1
SET,1,1
/COM,OCV_SOLVED_STATE_BEGIN
/GRAPHICS,FULL
RSYS,0
ALLSEL,ALL
*GET,OCVPREN,NODE,0,COUNT
*GET,OCVPREE,ELEM,0,COUNT
*GET,OCVNSET,ACTIVE,0,SET,NSET
*GET,OCVLSTP,ACTIVE,0,SET,LSTP
*GET,OCVSBST,ACTIVE,0,SET,SBST
/COM,OCV_FORMAT_BEGIN
/FORMAT,8,E,24,16,100,240
/FORMAT,STAT
/COM,OCV_FORMAT_END
*CFOPEN,station_values,txt
*GET,OCVX,NODE,1201,LOC,X
*GET,OCVY,NODE,1201,LOC,Y
OCVQ=9.876543210123456E90
*GET,OCVQ,NODE,1201,S,X,ESOL
*VWRITE,'P10N16',1201,OCVX,OCVY,'SX',OCVQ
(A8,F8.0,2E24.16,A8,E24.16)
OCVQ=9.876543210123456E90
*GET,OCVQ,NODE,1201,S,Y,ESOL
*VWRITE,'P10N16',1201,OCVX,OCVY,'SY',OCVQ
(A8,F8.0,2E24.16,A8,E24.16)
OCVQ=9.876543210123456E90
*GET,OCVQ,NODE,1201,S,Z,ESOL
*VWRITE,'P10N16',1201,OCVX,OCVY,'SZ',OCVQ
(A8,F8.0,2E24.16,A8,E24.16)
OCVQ=9.876543210123456E90
*GET,OCVQ,NODE,1201,S,XY,ESOL
*VWRITE,'P10N16',1201,OCVX,OCVY,'SXY',OCVQ
(A8,F8.0,2E24.16,A8,E24.16)
OCVQ=9.876543210123456E90
*GET,OCVQ,NODE,1201,U,X
*VWRITE,'P10N16',1201,OCVX,OCVY,'UX',OCVQ
(A8,F8.0,2E24.16,A8,E24.16)
OCVQ=9.876543210123456E90
*GET,OCVQ,NODE,1201,U,Y
*VWRITE,'P10N16',1201,OCVX,OCVY,'UY',OCVQ
(A8,F8.0,2E24.16,A8,E24.16)
*GET,OCVX,NODE,1217,LOC,X
*GET,OCVY,NODE,1217,LOC,Y
OCVQ=9.876543210123456E90
*GET,OCVQ,NODE,1217,S,X,ESOL
*VWRITE,'P10N16',1217,OCVX,OCVY,'SX',OCVQ
(A8,F8.0,2E24.16,A8,E24.16)
OCVQ=9.876543210123456E90
*GET,OCVQ,NODE,1217,S,Y,ESOL
*VWRITE,'P10N16',1217,OCVX,OCVY,'SY',OCVQ
(A8,F8.0,2E24.16,A8,E24.16)
OCVQ=9.876543210123456E90
*GET,OCVQ,NODE,1217,S,Z,ESOL
*VWRITE,'P10N16',1217,OCVX,OCVY,'SZ',OCVQ
(A8,F8.0,2E24.16,A8,E24.16)
OCVQ=9.876543210123456E90
*GET,OCVQ,NODE,1217,S,XY,ESOL
*VWRITE,'P10N16',1217,OCVX,OCVY,'SXY',OCVQ
(A8,F8.0,2E24.16,A8,E24.16)
OCVQ=9.876543210123456E90
*GET,OCVQ,NODE,1217,U,X
*VWRITE,'P10N16',1217,OCVX,OCVY,'UX',OCVQ
(A8,F8.0,2E24.16,A8,E24.16)
OCVQ=9.876543210123456E90
*GET,OCVQ,NODE,1217,U,Y
*VWRITE,'P10N16',1217,OCVX,OCVY,'UY',OCVQ
(A8,F8.0,2E24.16,A8,E24.16)
*GET,OCVX,NODE,1233,LOC,X
*GET,OCVY,NODE,1233,LOC,Y
OCVQ=9.876543210123456E90
*GET,OCVQ,NODE,1233,S,X,ESOL
*VWRITE,'P10N16',1233,OCVX,OCVY,'SX',OCVQ
(A8,F8.0,2E24.16,A8,E24.16)
OCVQ=9.876543210123456E90
*GET,OCVQ,NODE,1233,S,Y,ESOL
*VWRITE,'P10N16',1233,OCVX,OCVY,'SY',OCVQ
(A8,F8.0,2E24.16,A8,E24.16)
OCVQ=9.876543210123456E90
*GET,OCVQ,NODE,1233,S,Z,ESOL
*VWRITE,'P10N16',1233,OCVX,OCVY,'SZ',OCVQ
(A8,F8.0,2E24.16,A8,E24.16)
OCVQ=9.876543210123456E90
*GET,OCVQ,NODE,1233,S,XY,ESOL
*VWRITE,'P10N16',1233,OCVX,OCVY,'SXY',OCVQ
(A8,F8.0,2E24.16,A8,E24.16)
OCVQ=9.876543210123456E90
*GET,OCVQ,NODE,1233,U,X
*VWRITE,'P10N16',1233,OCVX,OCVY,'UX',OCVQ
(A8,F8.0,2E24.16,A8,E24.16)
OCVQ=9.876543210123456E90
*GET,OCVQ,NODE,1233,U,Y
*VWRITE,'P10N16',1233,OCVX,OCVY,'UY',OCVQ
(A8,F8.0,2E24.16,A8,E24.16)
*GET,OCVX,NODE,2401,LOC,X
*GET,OCVY,NODE,2401,LOC,Y
OCVQ=9.876543210123456E90
*GET,OCVQ,NODE,2401,S,X,ESOL
*VWRITE,'P10N16',2401,OCVX,OCVY,'SX',OCVQ
(A8,F8.0,2E24.16,A8,E24.16)
OCVQ=9.876543210123456E90
*GET,OCVQ,NODE,2401,S,Y,ESOL
*VWRITE,'P10N16',2401,OCVX,OCVY,'SY',OCVQ
(A8,F8.0,2E24.16,A8,E24.16)
OCVQ=9.876543210123456E90
*GET,OCVQ,NODE,2401,S,Z,ESOL
*VWRITE,'P10N16',2401,OCVX,OCVY,'SZ',OCVQ
(A8,F8.0,2E24.16,A8,E24.16)
OCVQ=9.876543210123456E90
*GET,OCVQ,NODE,2401,S,XY,ESOL
*VWRITE,'P10N16',2401,OCVX,OCVY,'SXY',OCVQ
(A8,F8.0,2E24.16,A8,E24.16)
OCVQ=9.876543210123456E90
*GET,OCVQ,NODE,2401,U,X
*VWRITE,'P10N16',2401,OCVX,OCVY,'UX',OCVQ
(A8,F8.0,2E24.16,A8,E24.16)
OCVQ=9.876543210123456E90
*GET,OCVQ,NODE,2401,U,Y
*VWRITE,'P10N16',2401,OCVX,OCVY,'UY',OCVQ
(A8,F8.0,2E24.16,A8,E24.16)
*GET,OCVX,NODE,2417,LOC,X
*GET,OCVY,NODE,2417,LOC,Y
OCVQ=9.876543210123456E90
*GET,OCVQ,NODE,2417,S,X,ESOL
*VWRITE,'P10N16',2417,OCVX,OCVY,'SX',OCVQ
(A8,F8.0,2E24.16,A8,E24.16)
OCVQ=9.876543210123456E90
*GET,OCVQ,NODE,2417,S,Y,ESOL
*VWRITE,'P10N16',2417,OCVX,OCVY,'SY',OCVQ
(A8,F8.0,2E24.16,A8,E24.16)
OCVQ=9.876543210123456E90
*GET,OCVQ,NODE,2417,S,Z,ESOL
*VWRITE,'P10N16',2417,OCVX,OCVY,'SZ',OCVQ
(A8,F8.0,2E24.16,A8,E24.16)
OCVQ=9.876543210123456E90
*GET,OCVQ,NODE,2417,S,XY,ESOL
*VWRITE,'P10N16',2417,OCVX,OCVY,'SXY',OCVQ
(A8,F8.0,2E24.16,A8,E24.16)
OCVQ=9.876543210123456E90
*GET,OCVQ,NODE,2417,U,X
*VWRITE,'P10N16',2417,OCVX,OCVY,'UX',OCVQ
(A8,F8.0,2E24.16,A8,E24.16)
OCVQ=9.876543210123456E90
*GET,OCVQ,NODE,2417,U,Y
*VWRITE,'P10N16',2417,OCVX,OCVY,'UY',OCVQ
(A8,F8.0,2E24.16,A8,E24.16)
*GET,OCVX,NODE,2433,LOC,X
*GET,OCVY,NODE,2433,LOC,Y
OCVQ=9.876543210123456E90
*GET,OCVQ,NODE,2433,S,X,ESOL
*VWRITE,'P10N16',2433,OCVX,OCVY,'SX',OCVQ
(A8,F8.0,2E24.16,A8,E24.16)
OCVQ=9.876543210123456E90
*GET,OCVQ,NODE,2433,S,Y,ESOL
*VWRITE,'P10N16',2433,OCVX,OCVY,'SY',OCVQ
(A8,F8.0,2E24.16,A8,E24.16)
OCVQ=9.876543210123456E90
*GET,OCVQ,NODE,2433,S,Z,ESOL
*VWRITE,'P10N16',2433,OCVX,OCVY,'SZ',OCVQ
(A8,F8.0,2E24.16,A8,E24.16)
OCVQ=9.876543210123456E90
*GET,OCVQ,NODE,2433,S,XY,ESOL
*VWRITE,'P10N16',2433,OCVX,OCVY,'SXY',OCVQ
(A8,F8.0,2E24.16,A8,E24.16)
OCVQ=9.876543210123456E90
*GET,OCVQ,NODE,2433,U,X
*VWRITE,'P10N16',2433,OCVX,OCVY,'UX',OCVQ
(A8,F8.0,2E24.16,A8,E24.16)
OCVQ=9.876543210123456E90
*GET,OCVQ,NODE,2433,U,Y
*VWRITE,'P10N16',2433,OCVX,OCVY,'UY',OCVQ
(A8,F8.0,2E24.16,A8,E24.16)
*GET,OCVX,NODE,3601,LOC,X
*GET,OCVY,NODE,3601,LOC,Y
OCVQ=9.876543210123456E90
*GET,OCVQ,NODE,3601,S,X,ESOL
*VWRITE,'P10N16',3601,OCVX,OCVY,'SX',OCVQ
(A8,F8.0,2E24.16,A8,E24.16)
OCVQ=9.876543210123456E90
*GET,OCVQ,NODE,3601,S,Y,ESOL
*VWRITE,'P10N16',3601,OCVX,OCVY,'SY',OCVQ
(A8,F8.0,2E24.16,A8,E24.16)
OCVQ=9.876543210123456E90
*GET,OCVQ,NODE,3601,S,Z,ESOL
*VWRITE,'P10N16',3601,OCVX,OCVY,'SZ',OCVQ
(A8,F8.0,2E24.16,A8,E24.16)
OCVQ=9.876543210123456E90
*GET,OCVQ,NODE,3601,S,XY,ESOL
*VWRITE,'P10N16',3601,OCVX,OCVY,'SXY',OCVQ
(A8,F8.0,2E24.16,A8,E24.16)
OCVQ=9.876543210123456E90
*GET,OCVQ,NODE,3601,U,X
*VWRITE,'P10N16',3601,OCVX,OCVY,'UX',OCVQ
(A8,F8.0,2E24.16,A8,E24.16)
OCVQ=9.876543210123456E90
*GET,OCVQ,NODE,3601,U,Y
*VWRITE,'P10N16',3601,OCVX,OCVY,'UY',OCVQ
(A8,F8.0,2E24.16,A8,E24.16)
*GET,OCVX,NODE,3617,LOC,X
*GET,OCVY,NODE,3617,LOC,Y
OCVQ=9.876543210123456E90
*GET,OCVQ,NODE,3617,S,X,ESOL
*VWRITE,'P10N16',3617,OCVX,OCVY,'SX',OCVQ
(A8,F8.0,2E24.16,A8,E24.16)
OCVQ=9.876543210123456E90
*GET,OCVQ,NODE,3617,S,Y,ESOL
*VWRITE,'P10N16',3617,OCVX,OCVY,'SY',OCVQ
(A8,F8.0,2E24.16,A8,E24.16)
OCVQ=9.876543210123456E90
*GET,OCVQ,NODE,3617,S,Z,ESOL
*VWRITE,'P10N16',3617,OCVX,OCVY,'SZ',OCVQ
(A8,F8.0,2E24.16,A8,E24.16)
OCVQ=9.876543210123456E90
*GET,OCVQ,NODE,3617,S,XY,ESOL
*VWRITE,'P10N16',3617,OCVX,OCVY,'SXY',OCVQ
(A8,F8.0,2E24.16,A8,E24.16)
OCVQ=9.876543210123456E90
*GET,OCVQ,NODE,3617,U,X
*VWRITE,'P10N16',3617,OCVX,OCVY,'UX',OCVQ
(A8,F8.0,2E24.16,A8,E24.16)
OCVQ=9.876543210123456E90
*GET,OCVQ,NODE,3617,U,Y
*VWRITE,'P10N16',3617,OCVX,OCVY,'UY',OCVQ
(A8,F8.0,2E24.16,A8,E24.16)
*GET,OCVX,NODE,3633,LOC,X
*GET,OCVY,NODE,3633,LOC,Y
OCVQ=9.876543210123456E90
*GET,OCVQ,NODE,3633,S,X,ESOL
*VWRITE,'P10N16',3633,OCVX,OCVY,'SX',OCVQ
(A8,F8.0,2E24.16,A8,E24.16)
OCVQ=9.876543210123456E90
*GET,OCVQ,NODE,3633,S,Y,ESOL
*VWRITE,'P10N16',3633,OCVX,OCVY,'SY',OCVQ
(A8,F8.0,2E24.16,A8,E24.16)
OCVQ=9.876543210123456E90
*GET,OCVQ,NODE,3633,S,Z,ESOL
*VWRITE,'P10N16',3633,OCVX,OCVY,'SZ',OCVQ
(A8,F8.0,2E24.16,A8,E24.16)
OCVQ=9.876543210123456E90
*GET,OCVQ,NODE,3633,S,XY,ESOL
*VWRITE,'P10N16',3633,OCVX,OCVY,'SXY',OCVQ
(A8,F8.0,2E24.16,A8,E24.16)
OCVQ=9.876543210123456E90
*GET,OCVQ,NODE,3633,U,X
*VWRITE,'P10N16',3633,OCVX,OCVY,'UX',OCVQ
(A8,F8.0,2E24.16,A8,E24.16)
OCVQ=9.876543210123456E90
*GET,OCVQ,NODE,3633,U,Y
*VWRITE,'P10N16',3633,OCVX,OCVY,'UY',OCVQ
(A8,F8.0,2E24.16,A8,E24.16)
*CFCLOS
/COM,OCV_PRESOL_BEGIN
PRESOL,S,COMP
/COM,OCV_PRESOL_END
NSEL,NONE
NSEL,A,NODE,,1201
NSEL,A,NODE,,1217
NSEL,A,NODE,,1233
NSEL,A,NODE,,2401
NSEL,A,NODE,,2417
NSEL,A,NODE,,2433
NSEL,A,NODE,,3601
NSEL,A,NODE,,3617
NSEL,A,NODE,,3633
*GET,OCVLISTN,NODE,0,COUNT
*GET,OCVLISTE,ELEM,0,COUNT
/COM,OCV_STRESS_BEGIN
PRNSOL,S,COMP,,,,,ESOL
/COM,OCV_STRESS_END
/COM,OCV_DISP_BEGIN
PRNSOL,U,COMP
/COM,OCV_DISP_END
NSEL,ALL
*GET,OCVPOSTN,NODE,0,COUNT
*GET,OCVPOSTE,ELEM,0,COUNT
NSEL,NONE
NSEL,A,NODE,,1
NSEL,A,NODE,,2
NSEL,A,NODE,,3
NSEL,A,NODE,,4
NSEL,A,NODE,,5
NSEL,A,NODE,,6
NSEL,A,NODE,,7
NSEL,A,NODE,,8
NSEL,A,NODE,,9
NSEL,A,NODE,,10
NSEL,A,NODE,,11
NSEL,A,NODE,,12
NSEL,A,NODE,,13
NSEL,A,NODE,,14
NSEL,A,NODE,,15
NSEL,A,NODE,,16
NSEL,A,NODE,,17
NSEL,A,NODE,,18
NSEL,A,NODE,,19
NSEL,A,NODE,,20
! ... 13 like lines cut
/COM,OCV_SUPPORT_BEGIN
PRRSOL,F
/COM,OCV_SUPPORT_END
*CFOPEN,support_reactions,txt
*GET,OCVX,NODE,1,LOC,X
*GET,OCVY,NODE,1,LOC,Y
OCVQ=9.876543210123456E90
*GET,OCVQ,NODE,1,RF,FY
*VWRITE,'P10N16',1,OCVX,OCVY,'RFY',OCVQ
(A8,F8.0,2E24.16,A8,E24.16)
*GET,OCVX,NODE,2,LOC,X
*GET,OCVY,NODE,2,LOC,Y
OCVQ=9.876543210123456E90
*GET,OCVQ,NODE,2,RF,FY
*VWRITE,'P10N16',2,OCVX,OCVY,'RFY',OCVQ
(A8,F8.0,2E24.16,A8,E24.16)
*GET,OCVX,NODE,3,LOC,X
*GET,OCVY,NODE,3,LOC,Y
OCVQ=9.876543210123456E90
*GET,OCVQ,NODE,3,RF,FY
*VWRITE,'P10N16',3,OCVX,OCVY,'RFY',OCVQ
(A8,F8.0,2E24.16,A8,E24.16)
*GET,OCVX,NODE,4,LOC,X
*GET,OCVY,NODE,4,LOC,Y
OCVQ=9.876543210123456E90
*GET,OCVQ,NODE,4,RF,FY
*VWRITE,'P10N16',4,OCVX,OCVY,'RFY',OCVQ
(A8,F8.0,2E24.16,A8,E24.16)
*GET,OCVX,NODE,5,LOC,X
*GET,OCVY,NODE,5,LOC,Y
OCVQ=9.876543210123456E90
*GET,OCVQ,NODE,5,RF,FY
*VWRITE,'P10N16',5,OCVX,OCVY,'RFY',OCVQ
(A8,F8.0,2E24.16,A8,E24.16)
*GET,OCVX,NODE,6,LOC,X
*GET,OCVY,NODE,6,LOC,Y
OCVQ=9.876543210123456E90
*GET,OCVQ,NODE,6,RF,FY
*VWRITE,'P10N16',6,OCVX,OCVY,'RFY',OCVQ
(A8,F8.0,2E24.16,A8,E24.16)
*GET,OCVX,NODE,7,LOC,X
*GET,OCVY,NODE,7,LOC,Y
OCVQ=9.876543210123456E90
*GET,OCVQ,NODE,7,RF,FY
*VWRITE,'P10N16',7,OCVX,OCVY,'RFY',OCVQ
(A8,F8.0,2E24.16,A8,E24.16)
*GET,OCVX,NODE,8,LOC,X
*GET,OCVY,NODE,8,LOC,Y
OCVQ=9.876543210123456E90
*GET,OCVQ,NODE,8,RF,FY
*VWRITE,'P10N16',8,OCVX,OCVY,'RFY',OCVQ
(A8,F8.0,2E24.16,A8,E24.16)
*GET,OCVX,NODE,9,LOC,X
*GET,OCVY,NODE,9,LOC,Y
OCVQ=9.876543210123456E90
*GET,OCVQ,NODE,9,RF,FY
*VWRITE,'P10N16',9,OCVX,OCVY,'RFY',OCVQ
(A8,F8.0,2E24.16,A8,E24.16)
*GET,OCVX,NODE,10,LOC,X
*GET,OCVY,NODE,10,LOC,Y
OCVQ=9.876543210123456E90
*GET,OCVQ,NODE,10,RF,FY
*VWRITE,'P10N16',10,OCVX,OCVY,'RFY',OCVQ
(A8,F8.0,2E24.16,A8,E24.16)
*GET,OCVX,NODE,11,LOC,X
*GET,OCVY,NODE,11,LOC,Y
OCVQ=9.876543210123456E90
*GET,OCVQ,NODE,11,RF,FY
*VWRITE,'P10N16',11,OCVX,OCVY,'RFY',OCVQ
(A8,F8.0,2E24.16,A8,E24.16)
*GET,OCVX,NODE,12,LOC,X
*GET,OCVY,NODE,12,LOC,Y
OCVQ=9.876543210123456E90
*GET,OCVQ,NODE,12,RF,FY
*VWRITE,'P10N16',12,OCVX,OCVY,'RFY',OCVQ
(A8,F8.0,2E24.16,A8,E24.16)
*GET,OCVX,NODE,13,LOC,X
*GET,OCVY,NODE,13,LOC,Y
OCVQ=9.876543210123456E90
*GET,OCVQ,NODE,13,RF,FY
*VWRITE,'P10N16',13,OCVX,OCVY,'RFY',OCVQ
(A8,F8.0,2E24.16,A8,E24.16)
*GET,OCVX,NODE,14,LOC,X
*GET,OCVY,NODE,14,LOC,Y
OCVQ=9.876543210123456E90
*GET,OCVQ,NODE,14,RF,FY
*VWRITE,'P10N16',14,OCVX,OCVY,'RFY',OCVQ
(A8,F8.0,2E24.16,A8,E24.16)
*GET,OCVX,NODE,15,LOC,X
*GET,OCVY,NODE,15,LOC,Y
OCVQ=9.876543210123456E90
*GET,OCVQ,NODE,15,RF,FY
*VWRITE,'P10N16',15,OCVX,OCVY,'RFY',OCVQ
(A8,F8.0,2E24.16,A8,E24.16)
*GET,OCVX,NODE,16,LOC,X
*GET,OCVY,NODE,16,LOC,Y
OCVQ=9.876543210123456E90
*GET,OCVQ,NODE,16,RF,FY
*VWRITE,'P10N16',16,OCVX,OCVY,'RFY',OCVQ
(A8,F8.0,2E24.16,A8,E24.16)
*GET,OCVX,NODE,17,LOC,X
*GET,OCVY,NODE,17,LOC,Y
OCVQ=9.876543210123456E90
*GET,OCVQ,NODE,17,RF,FY
*VWRITE,'P10N16',17,OCVX,OCVY,'RFY',OCVQ
(A8,F8.0,2E24.16,A8,E24.16)
*GET,OCVX,NODE,18,LOC,X
*GET,OCVY,NODE,18,LOC,Y
OCVQ=9.876543210123456E90
*GET,OCVQ,NODE,18,RF,FY
*VWRITE,'P10N16',18,OCVX,OCVY,'RFY',OCVQ
(A8,F8.0,2E24.16,A8,E24.16)
*GET,OCVX,NODE,19,LOC,X
*GET,OCVY,NODE,19,LOC,Y
OCVQ=9.876543210123456E90
*GET,OCVQ,NODE,19,RF,FY
*VWRITE,'P10N16',19,OCVX,OCVY,'RFY',OCVQ
(A8,F8.0,2E24.16,A8,E24.16)
*GET,OCVX,NODE,20,LOC,X
*GET,OCVY,NODE,20,LOC,Y
OCVQ=9.876543210123456E90
*GET,OCVQ,NODE,20,RF,FY
*VWRITE,'P10N16',20,OCVX,OCVY,'RFY',OCVQ
(A8,F8.0,2E24.16,A8,E24.16)
*GET,OCVX,NODE,21,LOC,X
*GET,OCVY,NODE,21,LOC,Y
OCVQ=9.876543210123456E90
*GET,OCVQ,NODE,21,RF,FY
*VWRITE,'P10N16',21,OCVX,OCVY,'RFY',OCVQ
(A8,F8.0,2E24.16,A8,E24.16)
*GET,OCVX,NODE,22,LOC,X
*GET,OCVY,NODE,22,LOC,Y
OCVQ=9.876543210123456E90
*GET,OCVQ,NODE,22,RF,FY
*VWRITE,'P10N16',22,OCVX,OCVY,'RFY',OCVQ
(A8,F8.0,2E24.16,A8,E24.16)
*GET,OCVX,NODE,23,LOC,X
*GET,OCVY,NODE,23,LOC,Y
OCVQ=9.876543210123456E90
*GET,OCVQ,NODE,23,RF,FY
*VWRITE,'P10N16',23,OCVX,OCVY,'RFY',OCVQ
(A8,F8.0,2E24.16,A8,E24.16)
*GET,OCVX,NODE,24,LOC,X
*GET,OCVY,NODE,24,LOC,Y
OCVQ=9.876543210123456E90
*GET,OCVQ,NODE,24,RF,FY
*VWRITE,'P10N16',24,OCVX,OCVY,'RFY',OCVQ
(A8,F8.0,2E24.16,A8,E24.16)
*GET,OCVX,NODE,25,LOC,X
*GET,OCVY,NODE,25,LOC,Y
OCVQ=9.876543210123456E90
*GET,OCVQ,NODE,25,RF,FY
*VWRITE,'P10N16',25,OCVX,OCVY,'RFY',OCVQ
(A8,F8.0,2E24.16,A8,E24.16)
*GET,OCVX,NODE,26,LOC,X
*GET,OCVY,NODE,26,LOC,Y
OCVQ=9.876543210123456E90
*GET,OCVQ,NODE,26,RF,FY
*VWRITE,'P10N16',26,OCVX,OCVY,'RFY',OCVQ
(A8,F8.0,2E24.16,A8,E24.16)
*GET,OCVX,NODE,27,LOC,X
*GET,OCVY,NODE,27,LOC,Y
OCVQ=9.876543210123456E90
*GET,OCVQ,NODE,27,RF,FY
*VWRITE,'P10N16',27,OCVX,OCVY,'RFY',OCVQ
(A8,F8.0,2E24.16,A8,E24.16)
*GET,OCVX,NODE,28,LOC,X
*GET,OCVY,NODE,28,LOC,Y
OCVQ=9.876543210123456E90
*GET,OCVQ,NODE,28,RF,FY
*VWRITE,'P10N16',28,OCVX,OCVY,'RFY',OCVQ
(A8,F8.0,2E24.16,A8,E24.16)
*GET,OCVX,NODE,29,LOC,X
*GET,OCVY,NODE,29,LOC,Y
OCVQ=9.876543210123456E90
*GET,OCVQ,NODE,29,RF,FY
*VWRITE,'P10N16',29,OCVX,OCVY,'RFY',OCVQ
(A8,F8.0,2E24.16,A8,E24.16)
*GET,OCVX,NODE,30,LOC,X
*GET,OCVY,NODE,30,LOC,Y
OCVQ=9.876543210123456E90
*GET,OCVQ,NODE,30,RF,FY
*VWRITE,'P10N16',30,OCVX,OCVY,'RFY',OCVQ
(A8,F8.0,2E24.16,A8,E24.16)
*GET,OCVX,NODE,31,LOC,X
*GET,OCVY,NODE,31,LOC,Y
OCVQ=9.876543210123456E90
*GET,OCVQ,NODE,31,RF,FY
*VWRITE,'P10N16',31,OCVX,OCVY,'RFY',OCVQ
(A8,F8.0,2E24.16,A8,E24.16)
*GET,OCVX,NODE,32,LOC,X
*GET,OCVY,NODE,32,LOC,Y
OCVQ=9.876543210123456E90
*GET,OCVQ,NODE,32,RF,FY
*VWRITE,'P10N16',32,OCVX,OCVY,'RFY',OCVQ
(A8,F8.0,2E24.16,A8,E24.16)
*GET,OCVX,NODE,33,LOC,X
*GET,OCVY,NODE,33,LOC,Y
OCVQ=9.876543210123456E90
*GET,OCVQ,NODE,33,RF,FY
*VWRITE,'P10N16',33,OCVX,OCVY,'RFY',OCVQ
(A8,F8.0,2E24.16,A8,E24.16)
*CFCLOS
NSEL,ALL
*CFOPEN,state_values,txt
*VWRITE,'P10N16',0,0,0,'NSET',OCVNSET
(A8,F8.0,2E24.16,A8,E24.16)
*VWRITE,'P10N16',0,0,0,'LSTP',OCVLSTP
(A8,F8.0,2E24.16,A8,E24.16)
*VWRITE,'P10N16',0,0,0,'SBST',OCVSBST
(A8,F8.0,2E24.16,A8,E24.16)
*VWRITE,'P10N16',0,0,0,'PRE_N',OCVPREN
(A8,F8.0,2E24.16,A8,E24.16)
*VWRITE,'P10N16',0,0,0,'PRE_E',OCVPREE
(A8,F8.0,2E24.16,A8,E24.16)
*VWRITE,'P10N16',0,0,0,'LIST_N',OCVLISTN
(A8,F8.0,2E24.16,A8,E24.16)
*VWRITE,'P10N16',0,0,0,'LIST_E',OCVLISTE
(A8,F8.0,2E24.16,A8,E24.16)
*VWRITE,'P10N16',0,0,0,'POST_N',OCVPOSTN
(A8,F8.0,2E24.16,A8,E24.16)
*VWRITE,'P10N16',0,0,0,'POST_E',OCVPOSTE
(A8,F8.0,2E24.16,A8,E24.16)
*CFCLOS
*CFOPEN,precision_witness,txt
OCVWIT=1.234567890123456
*VWRITE,'P10N16',0,0,0,'WITNESS',OCVWIT
(A8,F8.0,2E24.16,A8,E24.16)
*CFCLOS
FINISH
