/BATCH
/CLEAR,NOSTART
/CONFIG,RESUPREC,0
/TITLE,Open cylinder verification P10N8
/PREP7
CSYS,0
ET,1,PLANE183
KEYOPT,1,1,0
KEYOPT,1,3,1
KEYOPT,1,6,0
MP,EX,1,200000
MP,PRXY,1,0.3
TYPE,1
MAT,1
ESYS,0
N,1,750,0,0
N,2,753.75,0,0
N,3,757.5,0,0
N,4,761.25,0,0
N,5,765,0,0
N,6,768.75,0,0
N,7,772.5,0,0
N,8,776.25,0,0
N,9,780,0,0
N,10,783.75,0,0
N,11,787.5,0,0
N,12,791.25,0,0
N,13,795,0,0
N,14,798.75,0,0
N,15,802.5,0,0
N,16,806.25,0,0
N,17,810,0,0
N,18,750,2.5,0
N,19,757.5,2.5,0
N,20,765,2.5,0
! ... 1245 like lines cut
EN,1,1,3,29,27,2,19,28,18
EN,2,3,5,31,29,4,20,30,19
EN,3,5,7,33,31,6,21,32,20
EN,4,7,9,35,33,8,22,34,21
EN,5,9,11,37,35,10,23,36,22
EN,6,11,13,39,37,12,24,38,23
EN,7,13,15,41,39,14,25,40,24
EN,8,15,17,43,41,16,26,42,25
EN,9,27,29,55,53,28,45,54,44
EN,10,29,31,57,55,30,46,56,45
EN,11,31,33,59,57,32,47,58,46
EN,12,33,35,61,59,34,48,60,47
EN,13,35,37,63,61,36,49,62,48
EN,14,37,39,65,63,38,50,64,49
EN,15,39,41,67,65,40,51,66,50
EN,16,41,43,69,67,42,52,68,51
EN,17,53,55,81,79,54,71,80,70
EN,18,55,57,83,81,56,72,82,71
EN,19,57,59,85,83,58,73,84,72
EN,20,59,61,87,85,60,74,86,73
! ... 364 like lines cut
ALLSEL,ALL
CDWRITE,DB,model,cdb
/COM,OCV_MESH_BEGIN
NLIST,ALL
ELIST,ALL
ETLIST,ALL
MPLIST,ALL
/COM,OCV_MESH_END
FINISH
/SOLU
ANTYPE,STATIC
NLGEOM,OFF
AUTOTS,OFF
NSUBST,1,1,1
TIME,1
ERESX,YES
ALLSEL,ALL
D,1,UY,0
D,2,UY,0
D,3,UY,0
D,4,UY,0
D,5,UY,0
D,6,UY,0
D,7,UY,0
D,8,UY,0
D,9,UY,0
D,10,UY,0
D,11,UY,0
D,12,UY,0
D,13,UY,0
D,14,UY,0
D,15,UY,0
D,16,UY,0
D,17,UY,0
SFE,1,4,PRES,1,10,10
SFE,9,4,PRES,1,10,10
SFE,17,4,PRES,1,10,10
SFE,25,4,PRES,1,10,10
SFE,33,4,PRES,1,10,10
SFE,41,4,PRES,1,10,10
SFE,49,4,PRES,1,10,10
SFE,57,4,PRES,1,10,10
SFE,65,4,PRES,1,10,10
SFE,73,4,PRES,1,10,10
SFE,81,4,PRES,1,10,10
SFE,89,4,PRES,1,10,10
SFE,97,4,PRES,1,10,10
SFE,105,4,PRES,1,10,10
SFE,113,4,PRES,1,10,10
SFE,121,4,PRES,1,10,10
SFE,129,4,PRES,1,10,10
SFE,137,4,PRES,1,10,10
SFE,145,4,PRES,1,10,10
SFE,153,4,PRES,1,10,10
! ... 28 like lines cut
/COM,OCV_OUTRES_BEGIN
OUTRES,ERASE
OUTRES,ALL,ALL
OUTRES,NAR,NONE
OUTRES,STAT
/COM,OCV_OUTRES_END
/COM,OCV_NERR_BEGIN
/NERR,STAT
/COM,OCV_NERR_END
ALLSEL,ALL
/COM,OCV_LOAD_AUDIT_BEGIN
SFELIST,ALL,ALL
FLIST,ALL
DLIST,ALL
FINISH
/CONFIG,STAT
/SOLU
SOLVE
FINISH
/CONFIG,STAT
/POST1
SET,1,1
/COM,OCV_SOLVED_STATE_BEGIN
/GRAPHICS,FULL
RSYS,0
ALLSEL,ALL
*GET,OCVPREN,NODE,0,COUNT
*GET,OCVPREE,ELEM,0,COUNT
*GET,OCVNSET,ACTIVE,0,SET,NSET
*GET,OCVLSTP,ACTIVE,0,SET,LSTP
*GET,OCVSBST,ACTIVE,0,SET,SBST
/COM,OCV_FORMAT_BEGIN
/FORMAT,8,E,24,16,100,240
/FORMAT,STAT
/COM,OCV_FORMAT_END
*CFOPEN,station_values,txt
*GET,OCVX,NODE,313,LOC,X
*GET,OCVY,NODE,313,LOC,Y
OCVQ=9.876543210123456E90
*GET,OCVQ,NODE,313,S,X,ESOL
*VWRITE,'P10N8',313,OCVX,OCVY,'SX',OCVQ
(A8,F8.0,2E24.16,A8,E24.16)
OCVQ=9.876543210123456E90
*GET,OCVQ,NODE,313,S,Y,ESOL
*VWRITE,'P10N8',313,OCVX,OCVY,'SY',OCVQ
(A8,F8.0,2E24.16,A8,E24.16)
OCVQ=9.876543210123456E90
*GET,OCVQ,NODE,313,S,Z,ESOL
*VWRITE,'P10N8',313,OCVX,OCVY,'SZ',OCVQ
(A8,F8.0,2E24.16,A8,E24.16)
OCVQ=9.876543210123456E90
*GET,OCVQ,NODE,313,S,XY,ESOL
*VWRITE,'P10N8',313,OCVX,OCVY,'SXY',OCVQ
(A8,F8.0,2E24.16,A8,E24.16)
OCVQ=9.876543210123456E90
*GET,OCVQ,NODE,313,U,X
*VWRITE,'P10N8',313,OCVX,OCVY,'UX',OCVQ
(A8,F8.0,2E24.16,A8,E24.16)
OCVQ=9.876543210123456E90
*GET,OCVQ,NODE,313,U,Y
*VWRITE,'P10N8',313,OCVX,OCVY,'UY',OCVQ
(A8,F8.0,2E24.16,A8,E24.16)
*GET,OCVX,NODE,321,LOC,X
*GET,OCVY,NODE,321,LOC,Y
OCVQ=9.876543210123456E90
*GET,OCVQ,NODE,321,S,X,ESOL
*VWRITE,'P10N8',321,OCVX,OCVY,'SX',OCVQ
(A8,F8.0,2E24.16,A8,E24.16)
OCVQ=9.876543210123456E90
*GET,OCVQ,NODE,321,S,Y,ESOL
*VWRITE,'P10N8',321,OCVX,OCVY,'SY',OCVQ
(A8,F8.0,2E24.16,A8,E24.16)
OCVQ=9.876543210123456E90
*GET,OCVQ,NODE,321,S,Z,ESOL
*VWRITE,'P10N8',321,OCVX,OCVY,'SZ',OCVQ
(A8,F8.0,2E24.16,A8,E24.16)
OCVQ=9.876543210123456E90
*GET,OCVQ,NODE,321,S,XY,ESOL
*VWRITE,'P10N8',321,OCVX,OCVY,'SXY',OCVQ
(A8,F8.0,2E24.16,A8,E24.16)
OCVQ=9.876543210123456E90
*GET,OCVQ,NODE,321,U,X
*VWRITE,'P10N8',321,OCVX,OCVY,'UX',OCVQ
(A8,F8.0,2E24.16,A8,E24.16)
OCVQ=9.876543210123456E90
*GET,OCVQ,NODE,321,U,Y
*VWRITE,'P10N8',321,OCVX,OCVY,'UY',OCVQ
(A8,F8.0,2E24.16,A8,E24.16)
*GET,OCVX,NODE,329,LOC,X
*GET,OCVY,NODE,329,LOC,Y
OCVQ=9.876543210123456E90
*GET,OCVQ,NODE,329,S,X,ESOL
*VWRITE,'P10N8',329,OCVX,OCVY,'SX',OCVQ
(A8,F8.0,2E24.16,A8,E24.16)
OCVQ=9.876543210123456E90
*GET,OCVQ,NODE,329,S,Y,ESOL
*VWRITE,'P10N8',329,OCVX,OCVY,'SY',OCVQ
(A8,F8.0,2E24.16,A8,E24.16)
OCVQ=9.876543210123456E90
*GET,OCVQ,NODE,329,S,Z,ESOL
*VWRITE,'P10N8',329,OCVX,OCVY,'SZ',OCVQ
(A8,F8.0,2E24.16,A8,E24.16)
OCVQ=9.876543210123456E90
*GET,OCVQ,NODE,329,S,XY,ESOL
*VWRITE,'P10N8',329,OCVX,OCVY,'SXY',OCVQ
(A8,F8.0,2E24.16,A8,E24.16)
OCVQ=9.876543210123456E90
*GET,OCVQ,NODE,329,U,X
*VWRITE,'P10N8',329,OCVX,OCVY,'UX',OCVQ
(A8,F8.0,2E24.16,A8,E24.16)
OCVQ=9.876543210123456E90
*GET,OCVQ,NODE,329,U,Y
*VWRITE,'P10N8',329,OCVX,OCVY,'UY',OCVQ
(A8,F8.0,2E24.16,A8,E24.16)
*GET,OCVX,NODE,625,LOC,X
*GET,OCVY,NODE,625,LOC,Y
OCVQ=9.876543210123456E90
*GET,OCVQ,NODE,625,S,X,ESOL
*VWRITE,'P10N8',625,OCVX,OCVY,'SX',OCVQ
(A8,F8.0,2E24.16,A8,E24.16)
OCVQ=9.876543210123456E90
*GET,OCVQ,NODE,625,S,Y,ESOL
*VWRITE,'P10N8',625,OCVX,OCVY,'SY',OCVQ
(A8,F8.0,2E24.16,A8,E24.16)
OCVQ=9.876543210123456E90
*GET,OCVQ,NODE,625,S,Z,ESOL
*VWRITE,'P10N8',625,OCVX,OCVY,'SZ',OCVQ
(A8,F8.0,2E24.16,A8,E24.16)
OCVQ=9.876543210123456E90
*GET,OCVQ,NODE,625,S,XY,ESOL
*VWRITE,'P10N8',625,OCVX,OCVY,'SXY',OCVQ
(A8,F8.0,2E24.16,A8,E24.16)
OCVQ=9.876543210123456E90
*GET,OCVQ,NODE,625,U,X
*VWRITE,'P10N8',625,OCVX,OCVY,'UX',OCVQ
(A8,F8.0,2E24.16,A8,E24.16)
OCVQ=9.876543210123456E90
*GET,OCVQ,NODE,625,U,Y
*VWRITE,'P10N8',625,OCVX,OCVY,'UY',OCVQ
(A8,F8.0,2E24.16,A8,E24.16)
*GET,OCVX,NODE,633,LOC,X
*GET,OCVY,NODE,633,LOC,Y
OCVQ=9.876543210123456E90
*GET,OCVQ,NODE,633,S,X,ESOL
*VWRITE,'P10N8',633,OCVX,OCVY,'SX',OCVQ
(A8,F8.0,2E24.16,A8,E24.16)
OCVQ=9.876543210123456E90
*GET,OCVQ,NODE,633,S,Y,ESOL
*VWRITE,'P10N8',633,OCVX,OCVY,'SY',OCVQ
(A8,F8.0,2E24.16,A8,E24.16)
OCVQ=9.876543210123456E90
*GET,OCVQ,NODE,633,S,Z,ESOL
*VWRITE,'P10N8',633,OCVX,OCVY,'SZ',OCVQ
(A8,F8.0,2E24.16,A8,E24.16)
OCVQ=9.876543210123456E90
*GET,OCVQ,NODE,633,S,XY,ESOL
*VWRITE,'P10N8',633,OCVX,OCVY,'SXY',OCVQ
(A8,F8.0,2E24.16,A8,E24.16)
OCVQ=9.876543210123456E90
*GET,OCVQ,NODE,633,U,X
*VWRITE,'P10N8',633,OCVX,OCVY,'UX',OCVQ
(A8,F8.0,2E24.16,A8,E24.16)
OCVQ=9.876543210123456E90
*GET,OCVQ,NODE,633,U,Y
*VWRITE,'P10N8',633,OCVX,OCVY,'UY',OCVQ
(A8,F8.0,2E24.16,A8,E24.16)
*GET,OCVX,NODE,641,LOC,X
*GET,OCVY,NODE,641,LOC,Y
OCVQ=9.876543210123456E90
*GET,OCVQ,NODE,641,S,X,ESOL
*VWRITE,'P10N8',641,OCVX,OCVY,'SX',OCVQ
(A8,F8.0,2E24.16,A8,E24.16)
OCVQ=9.876543210123456E90
*GET,OCVQ,NODE,641,S,Y,ESOL
*VWRITE,'P10N8',641,OCVX,OCVY,'SY',OCVQ
(A8,F8.0,2E24.16,A8,E24.16)
OCVQ=9.876543210123456E90
*GET,OCVQ,NODE,641,S,Z,ESOL
*VWRITE,'P10N8',641,OCVX,OCVY,'SZ',OCVQ
(A8,F8.0,2E24.16,A8,E24.16)
OCVQ=9.876543210123456E90
*GET,OCVQ,NODE,641,S,XY,ESOL
*VWRITE,'P10N8',641,OCVX,OCVY,'SXY',OCVQ
(A8,F8.0,2E24.16,A8,E24.16)
OCVQ=9.876543210123456E90
*GET,OCVQ,NODE,641,U,X
*VWRITE,'P10N8',641,OCVX,OCVY,'UX',OCVQ
(A8,F8.0,2E24.16,A8,E24.16)
OCVQ=9.876543210123456E90
*GET,OCVQ,NODE,641,U,Y
*VWRITE,'P10N8',641,OCVX,OCVY,'UY',OCVQ
(A8,F8.0,2E24.16,A8,E24.16)
*GET,OCVX,NODE,937,LOC,X
*GET,OCVY,NODE,937,LOC,Y
OCVQ=9.876543210123456E90
*GET,OCVQ,NODE,937,S,X,ESOL
*VWRITE,'P10N8',937,OCVX,OCVY,'SX',OCVQ
(A8,F8.0,2E24.16,A8,E24.16)
OCVQ=9.876543210123456E90
*GET,OCVQ,NODE,937,S,Y,ESOL
*VWRITE,'P10N8',937,OCVX,OCVY,'SY',OCVQ
(A8,F8.0,2E24.16,A8,E24.16)
OCVQ=9.876543210123456E90
*GET,OCVQ,NODE,937,S,Z,ESOL
*VWRITE,'P10N8',937,OCVX,OCVY,'SZ',OCVQ
(A8,F8.0,2E24.16,A8,E24.16)
OCVQ=9.876543210123456E90
*GET,OCVQ,NODE,937,S,XY,ESOL
*VWRITE,'P10N8',937,OCVX,OCVY,'SXY',OCVQ
(A8,F8.0,2E24.16,A8,E24.16)
OCVQ=9.876543210123456E90
*GET,OCVQ,NODE,937,U,X
*VWRITE,'P10N8',937,OCVX,OCVY,'UX',OCVQ
(A8,F8.0,2E24.16,A8,E24.16)
OCVQ=9.876543210123456E90
*GET,OCVQ,NODE,937,U,Y
*VWRITE,'P10N8',937,OCVX,OCVY,'UY',OCVQ
(A8,F8.0,2E24.16,A8,E24.16)
*GET,OCVX,NODE,945,LOC,X
*GET,OCVY,NODE,945,LOC,Y
OCVQ=9.876543210123456E90
*GET,OCVQ,NODE,945,S,X,ESOL
*VWRITE,'P10N8',945,OCVX,OCVY,'SX',OCVQ
(A8,F8.0,2E24.16,A8,E24.16)
OCVQ=9.876543210123456E90
*GET,OCVQ,NODE,945,S,Y,ESOL
*VWRITE,'P10N8',945,OCVX,OCVY,'SY',OCVQ
(A8,F8.0,2E24.16,A8,E24.16)
OCVQ=9.876543210123456E90
*GET,OCVQ,NODE,945,S,Z,ESOL
*VWRITE,'P10N8',945,OCVX,OCVY,'SZ',OCVQ
(A8,F8.0,2E24.16,A8,E24.16)
OCVQ=9.876543210123456E90
*GET,OCVQ,NODE,945,S,XY,ESOL
*VWRITE,'P10N8',945,OCVX,OCVY,'SXY',OCVQ
(A8,F8.0,2E24.16,A8,E24.16)
OCVQ=9.876543210123456E90
*GET,OCVQ,NODE,945,U,X
*VWRITE,'P10N8',945,OCVX,OCVY,'UX',OCVQ
(A8,F8.0,2E24.16,A8,E24.16)
OCVQ=9.876543210123456E90
*GET,OCVQ,NODE,945,U,Y
*VWRITE,'P10N8',945,OCVX,OCVY,'UY',OCVQ
(A8,F8.0,2E24.16,A8,E24.16)
*GET,OCVX,NODE,953,LOC,X
*GET,OCVY,NODE,953,LOC,Y
OCVQ=9.876543210123456E90
*GET,OCVQ,NODE,953,S,X,ESOL
*VWRITE,'P10N8',953,OCVX,OCVY,'SX',OCVQ
(A8,F8.0,2E24.16,A8,E24.16)
OCVQ=9.876543210123456E90
*GET,OCVQ,NODE,953,S,Y,ESOL
*VWRITE,'P10N8',953,OCVX,OCVY,'SY',OCVQ
(A8,F8.0,2E24.16,A8,E24.16)
OCVQ=9.876543210123456E90
*GET,OCVQ,NODE,953,S,Z,ESOL
*VWRITE,'P10N8',953,OCVX,OCVY,'SZ',OCVQ
(A8,F8.0,2E24.16,A8,E24.16)
OCVQ=9.876543210123456E90
*GET,OCVQ,NODE,953,S,XY,ESOL
*VWRITE,'P10N8',953,OCVX,OCVY,'SXY',OCVQ
(A8,F8.0,2E24.16,A8,E24.16)
OCVQ=9.876543210123456E90
*GET,OCVQ,NODE,953,U,X
*VWRITE,'P10N8',953,OCVX,OCVY,'UX',OCVQ
(A8,F8.0,2E24.16,A8,E24.16)
OCVQ=9.876543210123456E90
*GET,OCVQ,NODE,953,U,Y
*VWRITE,'P10N8',953,OCVX,OCVY,'UY',OCVQ
(A8,F8.0,2E24.16,A8,E24.16)
*CFCLOS
/COM,OCV_PRESOL_BEGIN
PRESOL,S,COMP
/COM,OCV_PRESOL_END
NSEL,NONE
NSEL,A,NODE,,313
NSEL,A,NODE,,321
NSEL,A,NODE,,329
NSEL,A,NODE,,625
NSEL,A,NODE,,633
NSEL,A,NODE,,641
NSEL,A,NODE,,937
NSEL,A,NODE,,945
NSEL,A,NODE,,953
*GET,OCVLISTN,NODE,0,COUNT
*GET,OCVLISTE,ELEM,0,COUNT
/COM,OCV_STRESS_BEGIN
PRNSOL,S,COMP,,,,,ESOL
/COM,OCV_STRESS_END
/COM,OCV_DISP_BEGIN
PRNSOL,U,COMP
/COM,OCV_DISP_END
NSEL,ALL
*GET,OCVPOSTN,NODE,0,COUNT
*GET,OCVPOSTE,ELEM,0,COUNT
NSEL,NONE
NSEL,A,NODE,,1
NSEL,A,NODE,,2
NSEL,A,NODE,,3
NSEL,A,NODE,,4
NSEL,A,NODE,,5
NSEL,A,NODE,,6
NSEL,A,NODE,,7
NSEL,A,NODE,,8
NSEL,A,NODE,,9
NSEL,A,NODE,,10
NSEL,A,NODE,,11
NSEL,A,NODE,,12
NSEL,A,NODE,,13
NSEL,A,NODE,,14
NSEL,A,NODE,,15
NSEL,A,NODE,,16
NSEL,A,NODE,,17
/COM,OCV_SUPPORT_BEGIN
PRRSOL,F
/COM,OCV_SUPPORT_END
*CFOPEN,support_reactions,txt
*GET,OCVX,NODE,1,LOC,X
*GET,OCVY,NODE,1,LOC,Y
OCVQ=9.876543210123456E90
*GET,OCVQ,NODE,1,RF,FY
*VWRITE,'P10N8',1,OCVX,OCVY,'RFY',OCVQ
(A8,F8.0,2E24.16,A8,E24.16)
*GET,OCVX,NODE,2,LOC,X
*GET,OCVY,NODE,2,LOC,Y
OCVQ=9.876543210123456E90
*GET,OCVQ,NODE,2,RF,FY
*VWRITE,'P10N8',2,OCVX,OCVY,'RFY',OCVQ
(A8,F8.0,2E24.16,A8,E24.16)
*GET,OCVX,NODE,3,LOC,X
*GET,OCVY,NODE,3,LOC,Y
OCVQ=9.876543210123456E90
*GET,OCVQ,NODE,3,RF,FY
*VWRITE,'P10N8',3,OCVX,OCVY,'RFY',OCVQ
(A8,F8.0,2E24.16,A8,E24.16)
*GET,OCVX,NODE,4,LOC,X
*GET,OCVY,NODE,4,LOC,Y
OCVQ=9.876543210123456E90
*GET,OCVQ,NODE,4,RF,FY
*VWRITE,'P10N8',4,OCVX,OCVY,'RFY',OCVQ
(A8,F8.0,2E24.16,A8,E24.16)
*GET,OCVX,NODE,5,LOC,X
*GET,OCVY,NODE,5,LOC,Y
OCVQ=9.876543210123456E90
*GET,OCVQ,NODE,5,RF,FY
*VWRITE,'P10N8',5,OCVX,OCVY,'RFY',OCVQ
(A8,F8.0,2E24.16,A8,E24.16)
*GET,OCVX,NODE,6,LOC,X
*GET,OCVY,NODE,6,LOC,Y
OCVQ=9.876543210123456E90
*GET,OCVQ,NODE,6,RF,FY
*VWRITE,'P10N8',6,OCVX,OCVY,'RFY',OCVQ
(A8,F8.0,2E24.16,A8,E24.16)
*GET,OCVX,NODE,7,LOC,X
*GET,OCVY,NODE,7,LOC,Y
OCVQ=9.876543210123456E90
*GET,OCVQ,NODE,7,RF,FY
*VWRITE,'P10N8',7,OCVX,OCVY,'RFY',OCVQ
(A8,F8.0,2E24.16,A8,E24.16)
*GET,OCVX,NODE,8,LOC,X
*GET,OCVY,NODE,8,LOC,Y
OCVQ=9.876543210123456E90
*GET,OCVQ,NODE,8,RF,FY
*VWRITE,'P10N8',8,OCVX,OCVY,'RFY',OCVQ
(A8,F8.0,2E24.16,A8,E24.16)
*GET,OCVX,NODE,9,LOC,X
*GET,OCVY,NODE,9,LOC,Y
OCVQ=9.876543210123456E90
*GET,OCVQ,NODE,9,RF,FY
*VWRITE,'P10N8',9,OCVX,OCVY,'RFY',OCVQ
(A8,F8.0,2E24.16,A8,E24.16)
*GET,OCVX,NODE,10,LOC,X
*GET,OCVY,NODE,10,LOC,Y
OCVQ=9.876543210123456E90
*GET,OCVQ,NODE,10,RF,FY
*VWRITE,'P10N8',10,OCVX,OCVY,'RFY',OCVQ
(A8,F8.0,2E24.16,A8,E24.16)
*GET,OCVX,NODE,11,LOC,X
*GET,OCVY,NODE,11,LOC,Y
OCVQ=9.876543210123456E90
*GET,OCVQ,NODE,11,RF,FY
*VWRITE,'P10N8',11,OCVX,OCVY,'RFY',OCVQ
(A8,F8.0,2E24.16,A8,E24.16)
*GET,OCVX,NODE,12,LOC,X
*GET,OCVY,NODE,12,LOC,Y
OCVQ=9.876543210123456E90
*GET,OCVQ,NODE,12,RF,FY
*VWRITE,'P10N8',12,OCVX,OCVY,'RFY',OCVQ
(A8,F8.0,2E24.16,A8,E24.16)
*GET,OCVX,NODE,13,LOC,X
*GET,OCVY,NODE,13,LOC,Y
OCVQ=9.876543210123456E90
*GET,OCVQ,NODE,13,RF,FY
*VWRITE,'P10N8',13,OCVX,OCVY,'RFY',OCVQ
(A8,F8.0,2E24.16,A8,E24.16)
*GET,OCVX,NODE,14,LOC,X
*GET,OCVY,NODE,14,LOC,Y
OCVQ=9.876543210123456E90
*GET,OCVQ,NODE,14,RF,FY
*VWRITE,'P10N8',14,OCVX,OCVY,'RFY',OCVQ
(A8,F8.0,2E24.16,A8,E24.16)
*GET,OCVX,NODE,15,LOC,X
*GET,OCVY,NODE,15,LOC,Y
OCVQ=9.876543210123456E90
*GET,OCVQ,NODE,15,RF,FY
*VWRITE,'P10N8',15,OCVX,OCVY,'RFY',OCVQ
(A8,F8.0,2E24.16,A8,E24.16)
*GET,OCVX,NODE,16,LOC,X
*GET,OCVY,NODE,16,LOC,Y
OCVQ=9.876543210123456E90
*GET,OCVQ,NODE,16,RF,FY
*VWRITE,'P10N8',16,OCVX,OCVY,'RFY',OCVQ
(A8,F8.0,2E24.16,A8,E24.16)
*GET,OCVX,NODE,17,LOC,X
*GET,OCVY,NODE,17,LOC,Y
OCVQ=9.876543210123456E90
*GET,OCVQ,NODE,17,RF,FY
*VWRITE,'P10N8',17,OCVX,OCVY,'RFY',OCVQ
(A8,F8.0,2E24.16,A8,E24.16)
*CFCLOS
NSEL,ALL
*CFOPEN,state_values,txt
*VWRITE,'P10N8',0,0,0,'NSET',OCVNSET
(A8,F8.0,2E24.16,A8,E24.16)
*VWRITE,'P10N8',0,0,0,'LSTP',OCVLSTP
(A8,F8.0,2E24.16,A8,E24.16)
*VWRITE,'P10N8',0,0,0,'SBST',OCVSBST
(A8,F8.0,2E24.16,A8,E24.16)
*VWRITE,'P10N8',0,0,0,'PRE_N',OCVPREN
(A8,F8.0,2E24.16,A8,E24.16)
*VWRITE,'P10N8',0,0,0,'PRE_E',OCVPREE
(A8,F8.0,2E24.16,A8,E24.16)
*VWRITE,'P10N8',0,0,0,'LIST_N',OCVLISTN
(A8,F8.0,2E24.16,A8,E24.16)
*VWRITE,'P10N8',0,0,0,'LIST_E',OCVLISTE
(A8,F8.0,2E24.16,A8,E24.16)
*VWRITE,'P10N8',0,0,0,'POST_N',OCVPOSTN
(A8,F8.0,2E24.16,A8,E24.16)
*VWRITE,'P10N8',0,0,0,'POST_E',OCVPOSTE
(A8,F8.0,2E24.16,A8,E24.16)
*CFCLOS
*CFOPEN,precision_witness,txt
OCVWIT=1.234567890123456
*VWRITE,'P10N8',0,0,0,'WITNESS',OCVWIT
(A8,F8.0,2E24.16,A8,E24.16)
*CFCLOS
FINISH
